include ./omnetpp.ini

# -----------------------------------------------------------------------------
# ----------------------- Homo one router -------------------------------------
# -----------------------------------------------------------------------------
[Config Donet_Homo_oneRouter_Network]
network = Donet_Homo_oneRouter_Network
sim-time-limit = 200s

# -----------------------------
# Parameter space
# -----------------------------
Donet_Homo_oneRouter_Network.nNodePerRouter = ${100}
#seed-set = 12345
repeat = 1
seed-set = ${repetition}

# -----------------------------
# ------- Recording -----------
# -----------------------------
#**.scalar-recording = false
**.queue.vector-recording = false
**.nNodePerRouter.param-record-as-scalar = true
**.chunkGenerator.vector-recording = true
**.mesh.vector-recording = true
**.churnModerator.vector-recording = true
#**.gossip.vector-recording = true

# -----------------------------
# --- Start times ---
# -----------------------------
# ??? *.sourceNode.peerApp.startTime = 0s
*.sourceNode.peerApp.chunkGenerator.videoStartTime = 5s
*.peerNode[*].peerApp.mesh.startTime = uniform(1s, 1.001s)

# -----------------------------
# Global modules
# -----------------------------
*.meshObserver.meshOverlayLogFile = "..//results//mesh-overlay-link.txt"
*.logger.logFile = "..//results//node-activity-log.txt"
    # -- Churn:

# ---------- Old Interface ----------
#*.churnModel = "StaticChurn"
#*.churnModerator.lowerBoundAT = 0s
#*.churnModerator.upperBoundAT = 10s

# ---------- New Interface ----------
*.churnModel = "ExponentialChurnModel"
*.churnModerator.arrivalRate = 2
*.churnModerator.meanDuration = 10.0s

# Parameters are applied from [Veloso-2002]
#*.churnModel = "VelosoChurnModel"
#*.churnModerator.a = 2.52
#*.churnModerator.b = 1.55
#*.churnModerator.lambda = 5.19
#*.churnModerator.mu = 1.44

#*.churnModel = "UniformChurn"
#*.churnModerator.lowerBoundAT = 1s
#*.churnModerator.upperBoundAT = 3s
#*.churnModerator.lowerBoundDT = 2s
#*.churnModerator.upperBoundDT = 10s 


# -----------------------------
# ------- Video Streaming -----
# -----------------------------
*.appSetting.bufferMapSize = 30s
*.appSetting.chunkSize = 1250B
*.appSetting.videoStreamBitRate = 400kbps

# -----------------------------
# Gossip Protocol specific settings
# -----------------------------
#**.gossip.c = 0
#**.appMessageInterval = 1s
#**.isoCheckInterval = 1s

# -----------------------------
# Node settings
# -----------------------------
**.localPort = 9000
**.destPort = 9000

# -- Source Node
*.sourceNode.peerApp.mesh.numberOfPartner = 20
#*.peerNode[*].peerApp.mesh.startTime = uniform(2s, 2.001s)


# --- Peer nodes
*.peerNode[*].peerApp.mesh.numberOfPartner = 6
*.peerNode[*].peerApp.mesh.minNOP = 4
*.peerNode[*].peerApp.mesh.maxNOP = 6

*.peerNode[*].peerApp.player.interval_recheckVideoBuffer = 0.5s

*.peerNode[*].peerApp.mesh.interval_findMorePartner = 3.0s
*.peerNode[*].peerApp.mesh.interval_startPlayer = 0.5s

# Channels

#Channel0_up.






# -----------------------------------------------------------------------------
# ----------------------- Heter Router Line -----------------------------------
# -----------------------------------------------------------------------------
[Config Donet_Heter_RouterLine_Network]
network = Donet_Heter_RouterLine_Network
sim-time-limit = 11s

# -----------------------------
# Parameter space
# -----------------------------
# --- Total number of peer nodes = nNodePerRouter * nRouter
*.nNodePerRouter = ${100}
*.nRouter = 1

*.percentGroup1 = 0.1 # 3M
*.percentGroup2 = 0.2 # 1M
*.percentGroup3 = 0.3 # 384K
*.percentGroup4 = 0.4 # 128K

#seed-set = 12345
repeat = 1
seed-set = ${repetition}

# -----------------------------
# ------- Recording -----------
# -----------------------------
#**.scalar-recording = false
**.queue.vector-recording = false
**.nNodePerRouter.param-record-as-scalar = true
**.chunkGenerator.vector-recording = true
**.mesh.vector-recording = true
**.churnModerator.vector-recording = true
#**.gossip.vector-recording = true

# -----------------------------
# --- Start times ---
# -----------------------------
#*.sourceNode.peerApp.startTime = 0s
*.sourceNode.peerApp.chunkGenerator.videoStartTime = 5s
*.peerNode[*].peerApp.mesh.startTime = uniform(1s, 1.001s)

# -----------------------------
# Global modules
# -----------------------------
    # -- Churn:

    # --- Static "Churn"
		*.churnModel = "StaticChurn"
#		*.churnModerator.arrivalTime = uniform(0, 10)
		*.churnModerator.lowerBoundAT = 0s
		*.churnModerator.upperBoundAT = 10s

    # --- Exponential Churn
#		*.churnModel = "ExponentialChurnModel"
#		*.churnModerator.arrivalRate = 5
#		*.churnModerator.meanDuration = 10.0s

	# --- Parameters are applied from [Veloso-2002]
#		*.churnModel = "VelosoChurnModel"
#		*.churnModerator.a = 2.52
#		*.churnModerator.b = 1.55
#		*.churnModerator.lambda = 5.19
#		*.churnModerator.mu = 1.44

    # --- Uniform Churn
#		*.churnModel = "UniformChurn"
#		*.churnModerator.lowerBoundAT = 1s
#		*.churnModerator.upperBoundAT = 3s
#		*.churnModerator.lowerBoundDT = 2s
#		*.churnModerator.upperBoundDT = 10s 

*.appSetting.bufferMapSize      = 2s
*.appSetting.chunkSize          = 1250B
*.appSetting.videoStreamBitRate = 100kbps

# -----------------------------
# Gossip Protocol specific settings
# -----------------------------
#**.gossip.c = 0
#**.appMessageInterval = 1s
#**.isoCheckInterval = 1s

# -----------------------------
# Node settings
# -----------------------------
**.localPort = 9000
**.destPort = 9000

# -- Source Node

#*.peerNode[*].peerApp.mesh.startTime = uniform(2s, 2.001s)

*.peerNode[*].peerApp.mesh.numberOfPartner = 3






# ---------------------- end of configuration file ---------------------------------
